*SPEF "IEEE 1481.1999"
*DESIGN "top_module"
*DATE "06:31:10 Monday January 06, 2025"
*VENDOR "unknown"
*PROGRAM "qrouter"
*VERSION "unknown"
*DESIGN_FLOW "qflow"
*DIVIDER /
*DELIMITER :
*BUS_DELIMITER <>
*T_UNIT 1 PS
*C_UNIT 1 FF
*R_UNIT 1 OHM
*L_UNIT 1 HENRY

*NAME_MAP
*1 _47_
*2 OAI21X1_3
*3 NAND2X1_12
*4 NAND2X1_14
*5 OAI21X1_6
*6 NAND2X1_17
*7 OAI21X1_11
*8 NAND2X1_21
*9 OAI21X1_12
*10 NAND2X1_25
*11 OAI21X1_14
*12 NAND2X1_22
*13 OAI21X1_15
*14 OAI21X1_9
*15 NAND2X1_16
*16 NAND2X1_8
*17 rst
*18 INVX1_45
*19 INVX1_31
*20 INVX1_44
*21 INVX8_1
*22 INVX1_17
*23 INVX1_29
*24 INVX1_28
*25 INVX1_42
*26 INVX1_43
*27 parking_controller_inst_uut_counterpark_count[5]
*28 DFFSR_6
*29 NOR2X1_5
*30 XNOR2X1_3
*31 DFFSR_14
*32 OAI21X1_13
*33 NOR2X1_11
*34 XNOR2X1_4
*35 NAND2X1_21
*36 NAND2X1_3
*37 NOR3X1_2
*38 _97_
*39 INVX2_3
*40 OAI21X1_16
*41 OAI21X1_18
*42 OAI21X1_21
*43 OAI21X1_23
*44 NAND2X1_28
*45 NAND2X1_34
*46 NAND2X1_32
*47 OAI21X1_22
*48 NAND2X1_33
*49 parking_controller_inst_uut_counterpark_count[2]
*50 DFFSR_3
*51 NAND2X1_14
*52 XNOR2X1_1
*53 OAI21X1_8
*54 INVX1_7
*55 NAND3X1_6
*56 NOR2X1_3
*57 DFFSR_11
*58 NAND2X1_2
*59 parking_controller_inst_uut_counterpark_count[6]
*60 DFFSR_7
*61 DFFSR_15
*62 NAND2X1_22
*63 INVX1_10
*64 OAI21X1_13
*65 NOR3X1_2
*66 AOI21X1_2
*67 NAND2X1_4
*68 NOR2X1_4
*69 parking_controller_inst_uut_counterpark_count[4]
*70 DFFSR_5
*71 NAND2X1_17
*72 INVX1_9
*73 NAND2X1_20
*74 NAND2X1_3
*75 NAND2X1_18
*76 NOR2X1_5
*77 DFFSR_13
*78 _59_
*79 AOI22X1_1
*80 NOR2X1_10
*81 MUX2X1_2
*82 MUX2X1_1
*83 MUX2X1_6
*84 MUX2X1_3
*85 MUX2X1_4
*86 MUX2X1_5
*87 clk_bF_buf4
*88 CLKBUF1_1
*89 DFFSR_26
*90 DFFSR_25
*91 DFFSR_30
*92 DFFSR_28
*93 DFFSR_18
*94 DFFSR_27
*95 clk_bF_buf3
*96 CLKBUF1_2
*97 DFFSR_29
*98 DFFSR_21
*99 DFFSR_5
*100 DFFSR_6
*101 DFFSR_17
*102 DFFSR_3
*103 clk_bF_buf2
*104 CLKBUF1_3
*105 DFFSR_8
*106 DFFSR_16
*107 DFFSR_15
*108 DFFSR_10
*109 DFFSR_11
*110 DFFSR_7
*111 clk_bF_buf1
*112 CLKBUF1_4
*113 DFFSR_20
*114 DFFSR_2
*115 DFFSR_1
*116 DFFSR_4
*117 DFFSR_9
*118 DFFSR_19
*119 clk_bF_buf0
*120 CLKBUF1_5
*121 DFFSR_22
*122 DFFSR_12
*123 DFFSR_13
*124 DFFSR_14
*125 DFFSR_24
*126 DFFSR_23
*127 parking_controller_inst_uut_counterpark_count[0]
*128 DFFSR_1
*129 NAND2X1_8
*130 NOR2X1_2
*131 NAND3X1_6
*132 DFFSR_9
*133 NAND2X1_1
*134 INVX1_5
*135 _23_
*136 NAND2X1_1
*137 OAI21X1_7
*138 AND2X2_1
*139 OR2X2_1
*140 NOR2X1_8
*141 XNOR2X1_1
*142 OAI21X1_10
*143 parking_controller_inst_uut_counterpark_count[3]
*144 DFFSR_4
*145 OAI21X1_8
*146 NAND2X1_2
*147 INVX1_8
*148 NAND2X1_16
*149 NOR2X1_3
*150 DFFSR_12
*151 parking_controller_inst_uut_counterpark_count[7]
*152 DFFSR_8
*153 INVX1_11
*154 AOI21X1_2
*155 NAND2X1_4
*156 NAND2X1_25
*157 NOR2X1_4
*158 DFFSR_16
*159 parking_controller_inst_occupancy[3]
*160 DFFSR_12
*161 NOR2X1_16
*162 OAI21X1_24
*163 INVX2_1
*164 NAND2X1_35
*165 NOR2X1_17
*166 OAI21X1_17
*167 clk
*168 CLKBUF1_5
*169 CLKBUF1_2
*170 CLKBUF1_1
*171 CLKBUF1_4
*172 CLKBUF1_3
*173 _0__bF_buf3
*174 BUFX4_1
*175 DFFSR_10
*176 DFFSR_15
*177 DFFSR_8
*178 DFFSR_16
*179 DFFSR_11
*180 _0__bF_buf2
*181 BUFX4_2
*182 DFFSR_5
*183 DFFSR_6
*184 DFFSR_12
*185 DFFSR_13
*186 DFFSR_14
*187 _0__bF_buf1
*188 BUFX4_3
*189 DFFSR_17
*190 DFFSR_3
*191 DFFSR_20
*192 DFFSR_19
*193 DFFSR_18
*194 _0__bF_buf0
*195 BUFX4_4
*196 DFFSR_7
*197 DFFSR_9
*198 DFFSR_4
*199 DFFSR_1
*200 DFFSR_2
*201 parking_controller_inst_uut_counterpark_count[1]
*202 DFFSR_2
*203 NAND2X1_12
*204 NOR2X1_2
*205 NAND3X1_6
*206 DFFSR_10
*207 NAND2X1_1
*208 _38_
*209 NAND2X1_6
*210 OAI22X1_2
*211 NAND2X1_15
*212 OAI21X1_4
*213 OAI22X1_1
*214 NAND2X1_18
*215 _79_
*216 NAND3X1_5
*217 NOR3X1_2
*218 NAND2X1_19
*219 OAI21X1_13
*220 NOR2X1_11
*221 XNOR2X1_3
*222 parking_controller_inst_occupancy[2]
*223 DFFSR_11
*224 NOR2X1_17
*225 OAI21X1_17
*226 NAND2X1_35
*227 NAND2X1_31
*228 INVX2_2
*229 _93_
*230 INVX2_1
*231 OAI21X1_18
*232 OAI21X1_16
*233 OAI21X1_20
*234 AOI21X1_4
*235 OAI21X1_19
*236 _94_
*237 INVX2_2
*238 NAND2X1_29
*239 OAI21X1_20
*240 AOI21X1_4
*241 OAI21X1_16
*242 OAI21X1_19
*243 _174_[15]
*244 NAND2X1_26
*245 OR2X2_6
*246 OR2X2_5
*247 INVX2_3
*248 OR2X2_3
*249 BUFX2_8
*250 _0_
*251 INVX8_1
*252 BUFX4_3
*253 BUFX4_2
*254 BUFX4_4
*255 BUFX4_1
*256 parking_controller_inst_uut_counterpark_db_b
*257 DFFSR_18
*258 DFFSR_20
*259 NOR2X1_6
*260 OAI21X1_3
*261 INVX1_3
*262 _36_
*263 NOR2X1_2
*264 INVX1_6
*265 XNOR2X1_2
*266 NAND3X1_5
*267 NAND2X1_6
*268 _54_
*269 NOR2X1_8
*270 NAND2X1_11
*271 AOI21X1_1
*272 NAND2X1_20
*273 AOI21X1_3
*274 parking_controller_inst_occupancy[1]
*275 DFFSR_10
*276 NOR2X1_14
*277 NAND2X1_27
*278 INVX1_13
*279 NAND2X1_31
*280 parking_controller_inst_occupancy[4]
*281 DFFSR_13
*282 NOR2X1_16
*283 OAI21X1_24
*284 NAND2X1_36
*285 NOR2X1_13
*286 _95_
*287 NOR2X1_12
*288 AOI22X1_3
*289 NAND2X1_26
*290 AOI22X1_4
*291 AOI22X1_2
*292 _96_
*293 NOR2X1_13
*294 NAND2X1_26
*295 AOI22X1_4
*296 AOI22X1_2
*297 AOI22X1_3
*298 _98_
*299 NAND2X1_27
*300 AND2X2_4
*301 INVX1_12
*302 OAI21X1_23
*303 OAI21X1_19
*304 _104_
*305 NOR2X1_14
*306 AND2X2_5
*307 OAI21X1_21
*308 AOI21X1_4
*309 OAI21X1_20
*310 _107_
*311 NOR2X1_15
*312 NAND3X1_7
*313 NAND3X1_8
*314 NAND2X1_37
*315 NAND2X1_30
*316 _112_
*317 NOR2X1_17
*318 AOI22X1_4
*319 AND2X2_5
*320 AND2X2_4
*321 NAND2X1_32
*322 _24_
*323 NAND2X1_2
*324 OAI21X1_10
*325 OR2X2_1
*326 NOR2X1_8
*327 _25_
*328 OR2X2_1
*329 AND2X2_2
*330 OAI21X1_1
*331 OAI21X1_2
*332 _26_
*333 NAND2X1_3
*334 NOR3X1_1
*335 NOR2X1_9
*336 OR2X2_2
*337 parking_controller_inst_uut_counterpark_db_a
*338 DFFSR_17
*339 NAND2X1_5
*340 NOR2X1_7
*341 DFFSR_19
*342 parking_controller_inst_uut_counterpark_db_b_d
*343 DFFSR_20
*344 INVX1_4
*345 OAI21X1_3
*346 NOR2X1_1
*347 _41_
*348 NAND2X1_7
*349 OAI22X1_2
*350 OAI21X1_4
*351 OAI22X1_1
*352 _46_
*353 NAND3X1_1
*354 NAND3X1_4
*355 OAI21X1_3
*356 NAND3X1_2
*357 _55_
*358 NOR2X1_9
*359 AOI21X1_1
*360 NAND2X1_11
*361 AOI21X1_3
*362 parking_controller_inst_occupancy[5]
*363 DFFSR_14
*364 NOR2X1_15
*365 NOR2X1_13
*366 INVX1_15
*367 _108_
*368 NOR2X1_16
*369 NAND3X1_7
*370 NAND3X1_8
*371 NAND2X1_30
*372 _115_
*373 NAND2X1_35
*374 OAI21X1_22
*375 OAI21X1_21
*376 OAI21X1_23
*377 _118_
*378 NOR2X1_18
*379 AOI22X1_3
*380 AOI22X1_2
*381 AOI22X1_4
*382 _27_
*383 NAND2X1_4
*384 NOR2X1_9
*385 OR2X2_2
*386 _28_
*387 OR2X2_2
*388 OAI21X1_1
*389 OAI21X1_2
*390 _29_
*391 INVX1_1
*392 NOR2X1_7
*393 NAND2X1_5
*394 _30_
*395 NAND2X1_5
*396 AOI21X1_1
*397 INVX1_2
*398 _33_
*399 INVX1_3
*400 NOR2X1_1
*401 NAND2X1_9
*402 _34_
*403 NOR2X1_1
*404 OAI21X1_2
*405 AOI22X1_1
*406 _35_
*407 OAI21X1_2
*408 NAND3X1_1
*409 NAND3X1_3
*410 _37_
*411 NOR2X1_3
*412 NAND2X1_6
*413 NAND3X1_5
*414 _42_
*415 INVX1_4
*416 NOR2X1_6
*417 NAND2X1_9
*418 _43_
*419 NOR2X1_6
*420 OAI22X1_1
*421 OAI21X1_4
*422 _50_
*423 NAND2X1_9
*424 NAND3X1_2
*425 NAND3X1_4
*426 _52_
*427 INVX1_6
*428 OAI21X1_8
*429 AND2X2_1
*430 _53_
*431 AND2X2_1
*432 NOR2X1_10
*433 NAND3X1_3
*434 _57_
*435 AOI21X1_1
*436 AOI22X1_1
*437 NAND2X1_13
*438 _58_
*439 OAI21X1_4
*440 NAND2X1_13
*441 AOI22X1_1
*442 _66_
*443 INVX1_7
*444 OAI21X1_7
*445 XNOR2X1_2
*446 _70_
*447 INVX1_8
*448 OAI21X1_7
*449 NOR3X1_1
*450 _78_
*451 INVX1_9
*452 OAI21X1_10
*453 NAND3X1_5
*454 _82_
*455 NAND2X1_20
*456 AND2X2_3
*457 XNOR2X1_4
*458 _92_
*459 INVX1_10
*460 NAND2X1_23
*461 XNOR2X1_5
*462 _13_
*463 NOR3X1_1
*464 AOI21X1_2
*465 XNOR2X1_5
*466 parking_controller_inst_occupancy[0]
*467 DFFSR_9
*468 NOR2X1_14
*469 NAND2X1_27
*470 parking_controller_inst_occupancy[6]
*471 DFFSR_15
*472 NOR2X1_12
*473 OR2X2_4
*474 parking_controller_inst_occupancy[7]
*475 DFFSR_16
*476 NOR2X1_12
*477 OR2X2_4
*478 _175_
*479 DFFSR_29
*480 DFFSR_17
*481 BUFX2_21
*482 _176_
*483 DFFSR_30
*484 BUFX2_22
*485 DFFSR_18
*486 _101_
*487 INVX1_13
*488 OAI21X1_22
*489 NAND2X1_29
*490 _102_
*491 NAND2X1_29
*492 OAI21X1_24
*493 INVX1_14
*494 _103_
*495 INVX1_14
*496 NAND3X1_8
*497 OAI21X1_18
*498 _106_
*499 OR2X2_4
*500 NOR2X1_15
*501 NOR2X1_18
*502 _113_
*503 AND2X2_4
*504 AOI22X1_3
*505 NAND2X1_33
*506 _114_
*507 AND2X2_5
*508 AOI22X1_2
*509 NAND2X1_34
*510 car_detected_in
*511 DFFSR_24
*512 NAND3X1_9
*513 _121_
*514 INVX1_17
*515 DFFSR_21
*516 DFFSR_22
*517 servo_handling_inst_keypad_handling_in_motion_sensor_in_motion_out
*518 DFFSR_24
*519 DFFSR_22
*520 NAND3X1_12
*521 digit3_in[2]
*522 OAI21X1_26
*523 INVX1_18
*524 digit1_in[1]
*525 INVX1_19
*526 NAND2X1_39
*527 digit1_in[0]
*528 NAND2X1_38
*529 INVX1_21
*530 digit2_in[0]
*531 INVX1_20
*532 NAND3X1_11
*533 digit3_in[1]
*534 INVX1_22
*535 NAND3X1_10
*536 digit3_in[0]
*537 NAND3X1_10
*538 INVX1_23
*539 car_detected_out
*540 NAND3X1_14
*541 DFFSR_28
*542 _147_
*543 INVX1_31
*544 DFFSR_26
*545 DFFSR_25
*546 servo_handling_inst_keypad_handling_out_motion_sensor_out_motion_out
*547 DFFSR_28
*548 DFFSR_26
*549 NAND3X1_17
*550 digit3_out[2]
*551 INVX1_32
*552 OAI21X1_28
*553 digit1_out[1]
*554 INVX1_33
*555 NAND2X1_42
*556 digit1_out[0]
*557 NAND2X1_41
*558 INVX1_35
*559 digit2_out[0]
*560 INVX1_34
*561 NAND3X1_16
*562 digit3_out[1]
*563 NAND3X1_15
*564 INVX1_36
*565 digit3_out[0]
*566 INVX1_37
*567 NAND3X1_15
*568 parking_controller_inst_uut_counterpark_db_a_d
*569 DFFSR_19
*570 INVX1_1
*571 _31_
*572 INVX1_2
*573 OAI21X1_1
*574 _32_
*575 OAI21X1_1
*576 NAND3X1_1
*577 _39_
*578 NOR2X1_4
*579 NAND2X1_7
*580 _40_
*581 NOR2X1_5
*582 NAND2X1_7
*583 _44_
*584 NOR2X1_7
*585 OAI22X1_1
*586 _45_
*587 OAI22X1_1
*588 NAND3X1_1
*589 _48_
*590 NAND2X1_8
*591 NAND2X1_10
*592 _49_
*593 INVX1_5
*594 NAND3X1_2
*595 _51_
*596 NAND3X1_2
*597 NAND2X1_10
*598 _1_
*599 NAND2X1_10
*600 DFFSR_1
*601 _56_
*602 NAND2X1_11
*603 AOI22X1_1
*604 _60_
*605 NOR2X1_10
*606 OAI21X1_5
*607 _61_
*608 NAND2X1_12
*609 OAI21X1_5
*610 _62_
*611 NAND2X1_13
*612 NAND3X1_3
*613 _63_
*614 NAND3X1_3
*615 NAND3X1_4
*616 _64_
*617 NAND3X1_4
*618 OAI21X1_5
*619 _2_
*620 OAI21X1_5
*621 DFFSR_2
*622 _65_
*623 XNOR2X1_1
*624 MUX2X1_1
*625 _67_
*626 XNOR2X1_2
*627 MUX2X1_1
*628 _68_
*629 MUX2X1_1
*630 OAI21X1_6
*631 _69_
*632 NAND2X1_14
*633 OAI21X1_6
*634 _3_
*635 OAI21X1_6
*636 DFFSR_3
*637 _71_
*638 OAI21X1_7
*639 AND2X2_2
*640 _72_
*641 AND2X2_2
*642 MUX2X1_2
*643 _73_
*644 OAI21X1_8
*645 NAND2X1_15
*646 _74_
*647 NAND2X1_15
*648 MUX2X1_2
*649 _75_
*650 MUX2X1_2
*651 OAI21X1_9
*652 _76_
*653 NAND2X1_16
*654 OAI21X1_9
*655 _4_
*656 OAI21X1_9
*657 DFFSR_4
*658 _77_
*659 NAND2X1_17
*660 OAI21X1_11
*661 _80_
*662 NAND2X1_18
*663 NAND2X1_19
*664 _81_
*665 NAND2X1_19
*666 MUX2X1_3
*667 _83_
*668 OAI21X1_10
*669 AND2X2_3
*670 _84_
*671 AND2X2_3
*672 MUX2X1_3
*673 _85_
*674 MUX2X1_3
*675 OAI21X1_11
*676 _5_
*677 OAI21X1_11
*678 DFFSR_5
*679 _86_
*680 NAND2X1_21
*681 OAI21X1_12
*682 _87_
*683 XNOR2X1_3
*684 MUX2X1_4
*685 _88_
*686 XNOR2X1_4
*687 MUX2X1_4
*688 _89_
*689 MUX2X1_4
*690 OAI21X1_12
*691 _6_
*692 OAI21X1_12
*693 DFFSR_6
*694 _90_
*695 NAND2X1_22
*696 OAI21X1_14
*697 _91_
*698 OAI21X1_13
*699 NAND2X1_24
*700 _9_
*701 NOR2X1_11
*702 NAND2X1_23
*703 _10_
*704 NAND2X1_23
*705 NAND2X1_24
*706 _11_
*707 NAND2X1_24
*708 MUX2X1_5
*709 _12_
*710 NAND3X1_6
*711 NOR3X1_1
*712 _14_
*713 XNOR2X1_5
*714 MUX2X1_5
*715 _15_
*716 MUX2X1_5
*717 OAI21X1_14
*718 _7_
*719 OAI21X1_14
*720 DFFSR_7
*721 _16_
*722 NAND2X1_25
*723 OAI21X1_15
*724 _17_
*725 INVX1_11
*726 OAI22X1_2
*727 _18_
*728 NOR3X1_2
*729 OAI22X1_2
*730 _19_
*731 OAI22X1_2
*732 MUX2X1_6
*733 _20_
*734 AOI21X1_2
*735 AOI21X1_3
*736 _21_
*737 AOI21X1_3
*738 MUX2X1_6
*739 _22_
*740 MUX2X1_6
*741 OAI21X1_15
*742 _8_
*743 OAI21X1_15
*744 DFFSR_8
*745 _174_[11]
*746 OAI21X1_16
*747 BUFX2_4
*748 _99_
*749 INVX1_12
*750 OAI21X1_17
*751 _100_
*752 OAI21X1_17
*753 NAND2X1_28
*754 _174_[10]
*755 NAND2X1_28
*756 BUFX2_3
*757 _174_[9]
*758 OAI21X1_18
*759 BUFX2_20
*760 _105_
*761 AOI21X1_4
*762 OR2X2_3
*763 _174_[8]
*764 OR2X2_3
*765 BUFX2_19
*766 _174_[7]
*767 NAND2X1_30
*768 BUFX2_18
*769 _109_
*770 OAI21X1_19
*771 OR2X2_5
*772 _174_[6]
*773 OR2X2_5
*774 BUFX2_17
*775 _110_
*776 NAND2X1_31
*777 NAND3X1_7
*778 _174_[5]
*779 NAND3X1_7
*780 BUFX2_16
*781 _111_
*782 OAI21X1_20
*783 OR2X2_6
*784 _174_[4]
*785 OR2X2_6
*786 BUFX2_15
*787 _174_[3]
*788 NAND2X1_32
*789 BUFX2_14
*790 _174_[2]
*791 NAND2X1_33
*792 BUFX2_13
*793 _174_[1]
*794 NAND3X1_8
*795 BUFX2_2
*796 _174_[0]
*797 NAND2X1_34
*798 BUFX2_1
*799 _174_[12]
*800 OAI21X1_21
*801 BUFX2_5
*802 _174_[13]
*803 OAI21X1_22
*804 BUFX2_6
*805 _174_[14]
*806 OAI21X1_23
*807 BUFX2_7
*808 _116_
*809 INVX1_15
*810 NAND2X1_36
*811 _117_
*812 NAND2X1_36
*813 NOR2X1_18
*814 _174_[16]
*815 AOI22X1_2
*816 BUFX2_9
*817 _119_
*818 OAI21X1_24
*819 NAND2X1_37
*820 _174_[17]
*821 NAND2X1_37
*822 BUFX2_10
*823 _174_[18]
*824 AOI22X1_3
*825 BUFX2_11
*826 _174_[19]
*827 AOI22X1_4
*828 BUFX2_12
*829 servo_handling_inst_keypad_handling_in_lock_input_in
*830 DFFSR_22
*831 NAND3X1_9
*832 servo_handling_inst_keypad_handling_in_keypad_in_unlock
*833 DFFSR_23
*834 NAND3X1_9
*835 _122_
*836 NAND3X1_9
*837 INVX1_16
*838 _120_
*839 INVX1_16
*840 DFFSR_21
*841 servo_handling_inst_keypad_handling_in_unlock_in
*842 DFFSR_21
*843 DFFSR_29
*844 _125_
*845 INVX1_18
*846 OAI21X1_25
*847 _126_
*848 INVX1_19
*849 NAND2X1_38
*850 _127_
*851 NAND2X1_38
*852 OAI21X1_25
*853 _128_
*854 INVX1_20
*855 NAND3X1_10
*856 _129_
*857 NAND3X1_10
*858 OAI21X1_25
*859 _130_
*860 OAI21X1_25
*861 NAND3X1_13
*862 _131_
*863 INVX1_21
*864 NAND2X1_39
*865 _132_
*866 NAND2X1_39
*867 OAI21X1_26
*868 _133_
*869 INVX1_22
*870 NAND3X1_11
*871 _134_
*872 INVX1_23
*873 NAND3X1_11
*874 _135_
*875 NAND3X1_11
*876 OAI21X1_26
*877 _136_
*878 OAI21X1_26
*879 NAND3X1_13
*880 digit2_in[2]
*881 INVX1_24
*882 _137_
*883 INVX1_24
*884 NAND3X1_12
*885 digit3_in[3]
*886 INVX1_25
*887 _138_
*888 INVX1_25
*889 NAND3X1_12
*890 _139_
*891 NAND3X1_12
*892 NOR3X1_3
*893 digit1_in[3]
*894 OR2X2_7
*895 digit1_in[2]
*896 OR2X2_7
*897 _140_
*898 OR2X2_7
*899 NOR3X1_3
*900 digit2_in[3]
*901 INVX1_26
*902 _141_
*903 INVX1_26
*904 NAND2X1_40
*905 digit2_in[1]
*906 NAND2X1_40
*907 _142_
*908 NAND2X1_40
*909 NOR3X1_3
*910 _143_
*911 NOR3X1_3
*912 NAND3X1_13
*913 _144_
*914 NAND3X1_13
*915 INVX1_27
*916 _123_
*917 INVX1_27
*918 DFFSR_23
*919 _124_
*920 INVX1_28
*921 DFFSR_23
*922 _145_
*923 INVX1_29
*924 DFFSR_24
*925 servo_handling_inst_keypad_handling_out_lock_input_out
*926 DFFSR_26
*927 NAND3X1_14
*928 servo_handling_inst_keypad_handling_out_keypad_out_unlock
*929 DFFSR_27
*930 NAND3X1_14
*931 _148_
*932 NAND3X1_14
*933 INVX1_30
*934 _146_
*935 INVX1_30
*936 DFFSR_25
*937 servo_handling_inst_keypad_handling_out_unlock_out
*938 DFFSR_25
*939 DFFSR_30
*940 _151_
*941 INVX1_32
*942 OAI21X1_27
*943 _152_
*944 INVX1_33
*945 NAND2X1_41
*946 _153_
*947 NAND2X1_41
*948 OAI21X1_27
*949 _154_
*950 INVX1_34
*951 NAND3X1_15
*952 _155_
*953 NAND3X1_15
*954 OAI21X1_27
*955 _156_
*956 OAI21X1_27
*957 NAND3X1_18
*958 _157_
*959 INVX1_35
*960 NAND2X1_42
*961 _158_
*962 NAND2X1_42
*963 OAI21X1_28
*964 _159_
*965 INVX1_36
*966 NAND3X1_16
*967 _160_
*968 INVX1_37
*969 NAND3X1_16
*970 _161_
*971 NAND3X1_16
*972 OAI21X1_28
*973 _162_
*974 OAI21X1_28
*975 NAND3X1_18
*976 digit2_out[2]
*977 INVX1_38
*978 _163_
*979 INVX1_38
*980 NAND3X1_17
*981 digit3_out[3]
*982 INVX1_39
*983 _164_
*984 INVX1_39
*985 NAND3X1_17
*986 _165_
*987 NAND3X1_17
*988 NOR3X1_4
*989 digit1_out[3]
*990 OR2X2_8
*991 digit1_out[2]
*992 OR2X2_8
*993 _166_
*994 OR2X2_8
*995 NOR3X1_4
*996 digit2_out[3]
*997 INVX1_40
*998 _167_
*999 INVX1_40
*1000 NAND2X1_43
*1001 digit2_out[1]
*1002 NAND2X1_43
*1003 _168_
*1004 NAND2X1_43
*1005 NOR3X1_4
*1006 _169_
*1007 NOR3X1_4
*1008 NAND3X1_18
*1009 _170_
*1010 NAND3X1_18
*1011 INVX1_41
*1012 _149_
*1013 INVX1_41
*1014 DFFSR_27
*1015 _150_
*1016 INVX1_42
*1017 DFFSR_27
*1018 _171_
*1019 INVX1_43
*1020 DFFSR_28
*1021 _172_
*1022 INVX1_44
*1023 DFFSR_29
*1024 _173_
*1025 INVX1_45
*1026 DFFSR_30
*1027 led_slot[0]
*1028 BUFX2_1
*1029 led_slot[1]
*1030 BUFX2_2
*1031 led_slot[10]
*1032 BUFX2_3
*1033 led_slot[11]
*1034 BUFX2_4
*1035 led_slot[12]
*1036 BUFX2_5
*1037 led_slot[13]
*1038 BUFX2_6
*1039 led_slot[14]
*1040 BUFX2_7
*1041 led_slot[15]
*1042 BUFX2_8
*1043 led_slot[16]
*1044 BUFX2_9
*1045 led_slot[17]
*1046 BUFX2_10
*1047 led_slot[18]
*1048 BUFX2_11
*1049 led_slot[19]
*1050 BUFX2_12
*1051 led_slot[2]
*1052 BUFX2_13
*1053 led_slot[3]
*1054 BUFX2_14
*1055 led_slot[4]
*1056 BUFX2_15
*1057 led_slot[5]
*1058 BUFX2_16
*1059 led_slot[6]
*1060 BUFX2_17
*1061 led_slot[7]
*1062 BUFX2_18
*1063 led_slot[8]
*1064 BUFX2_19
*1065 led_slot[9]
*1066 BUFX2_20
*1067 servo_pwm_in
*1068 BUFX2_21
*1069 servo_pwm_out
*10